! Users should add all user specific namelist changes below in the form of 
! namelist_var = new_namelist_value 
 
prescribed_ozone_file = 'ozone_1.9x2.5_L66_1849-2006_c130613.nc'
cldfrc_rhminl = 0.8925D0
